docs/source/gallery/cases/wecc179/wecc179.raw
0,   100.00, 33, 0, 0, 60.00     / PSS(R)E 33 RAW created by rawd33  SUN, MAR 08 2026  19:27
                               100.0

     2,'CORONADO    ', 500.0000,1,   1,   1,   1,0.97947, -26.1764,1.10000,0.90000,1.10000,0.90000
     3,'CHOLLA      ', 345.0000,1,   1,   1,   1,0.97744, -16.9621,1.10000,0.90000,1.10000,0.90000
     4,'CORONADO    ',  20.0000,2,   1,   1,   1,1.04000, -19.6608,1.10000,0.90000,1.10000,0.90000
     5,'CRAIG       ', 345.0000,1,   1,   1,   1,0.97518,  16.2736,1.10000,0.90000,1.10000,0.90000
     6,'CRAIG       ',  22.0000,2,   1,   1,   1,0.95000,  23.5517,1.10000,0.90000,1.10000,0.90000
     7,'FOURCORN    ', 500.0000,1,   1,   1,   1,1.06814,  -7.9057,1.10000,0.90000,1.10000,0.90000
     8,'FOURCORN    ', 345.0000,1,   1,   1,   1,1.00914,  -4.6892,1.10000,0.90000,1.10000,0.90000
     9,'FCNGN4CC    ',  22.0000,2,   1,   1,   1,1.00000,   2.2282,1.10000,0.90000,1.10000,0.90000
    10,'FOURCORN    ', 230.0000,1,   1,   1,   1,1.00726,  -5.2326,1.10000,0.90000,1.10000,0.90000
    11,'HAYDEN      ',  20.0000,2,   1,   1,   1,1.00000,  33.7280,1.10000,0.90000,1.10000,0.90000
    12,'NAVAJO      ', 500.0000,1,   2,   1,   1,1.07205, -23.9368,1.10000,0.90000,1.10000,0.90000
    13,'NAVAJO 2    ',  26.0000,2,   2,   1,   1,1.00000, -17.8129,1.10000,0.90000,1.10000,0.90000
    14,'MOENKOPI    ', 500.0000,1,   2,   1,   1,1.06735, -24.8565,1.10000,0.90000,1.10000,0.90000
    15,'PALOVRD2    ',  24.0000,2,   2,   1,   1,0.96000, -21.7156,1.10000,0.90000,1.10000,0.90000
    16,'PALOVRDE    ', 500.0000,1,   2,   1,   1,1.04856, -29.6423,1.10000,0.90000,1.10000,0.90000
    17,'SAN JUAN    ', 345.0000,1,   1,   1,   1,1.03559,  -3.8762,1.10000,0.90000,1.10000,0.90000
    18,'SJUAN G4    ',  22.0000,2,   1,   1,   1,1.00000,  -0.8889,1.10000,0.90000,1.10000,0.90000
    19,'WESTWING    ', 500.0000,1,   2,   1,   1,1.05593, -29.5928,1.10000,0.90000,1.10000,0.90000
    20,'NAVAJO1     ', 500.0000,1,   2,   1,   1,1.07024, -22.8517,1.10000,0.90000,1.10000,0.90000
    21,'NAVAJO2     ', 500.0000,1,   2,   1,   1,1.06042, -25.9539,1.10000,0.90000,1.10000,0.90000
    22,'NAVAJO3     ', 500.0000,1,   2,   1,   1,1.04692, -22.1225,1.10000,0.90000,1.10000,0.90000
    23,'NAVAJO4     ', 500.0000,1,   2,   1,   1,1.02564, -31.4603,1.10000,0.90000,1.10000,0.90000
    24,'MOENKOP1    ', 500.0000,1,   2,   1,   1,1.05571, -23.3924,1.10000,0.90000,1.10000,0.90000
    25,'MOENKOP2    ', 500.0000,1,   2,   1,   1,1.04116, -31.0849,1.10000,0.90000,1.10000,0.90000
    26,'MOENKOP3    ', 500.0000,1,   2,   1,   1,1.05131, -15.5517,1.10000,0.90000,1.10000,0.90000
    27,'MOENKOP4    ', 500.0000,1,   2,   1,   1,1.04672, -42.3983,1.10000,0.90000,1.10000,0.90000
    28,'FOURCOR1    ', 500.0000,1,   1,   1,   1,1.06584,  -5.7811,1.10000,0.90000,1.10000,0.90000
    29,'FOURCOR2    ', 500.0000,1,   1,   1,   1,1.06933, -27.9839,1.10000,0.90000,1.10000,0.90000
    30,'CANAD G1    ',  20.0000,2,   1,   1,   1,1.00000,  24.7357,1.10000,0.90000,1.10000,0.90000
    31,'CANADA      ', 500.0000,1,   1,   1,   1,1.03634,  20.9452,1.10000,0.90000,1.10000,0.90000
    32,'CANALB      ', 500.0000,1,   1,   1,   1,1.07861,  49.2341,1.10000,0.90000,1.10000,0.90000
    33,'CA230TO     ', 230.0000,1,   1,   1,   1,0.97855,  53.8229,1.10000,0.90000,1.10000,0.90000
    34,'CA230       ', 230.0000,1,   1,   1,   1,1.00113,  62.8717,1.10000,0.90000,1.10000,0.90000
    35,'CMAIN GM    ',  20.0000,2,   1,   1,   1,1.02000,  67.7928,1.10000,0.90000,1.10000,0.90000
    36,'BRIDGER2    ',  22.0000,2,   1,   1,   1,1.00900,   2.4604,1.10000,0.90000,1.10000,0.90000
    37,'ADELANTO    ', 500.0000,1,   2,   1,   1,1.06031, -42.1570,1.10000,0.90000,1.10000,0.90000
    38,'ADELAN&1    ', 500.0000,1,   2,   1,   1,1.08090, -46.2272,1.10000,0.90000,1.10000,0.90000
    39,'CASTAIC     ', 230.0000,1,   2,   1,   1,1.03195, -47.2917,1.10000,0.90000,1.10000,0.90000
    40,'CASTAI4G    ',  18.0000,2,   2,   1,   1,1.02000, -45.9819,1.10000,0.90000,1.10000,0.90000
    41,'GLENDAL     ', 230.0000,1,   2,   1,   1,1.02337, -50.9240,1.10000,0.90000,1.10000,0.90000
    42,'HAYNES      ', 230.0000,1,   2,   1,   1,1.03129, -50.6536,1.10000,0.90000,1.10000,0.90000
    43,'HAYNES3G    ',  18.0000,2,   2,   1,   1,1.00000, -47.3504,1.10000,0.90000,1.10000,0.90000
    44,'INTERMT     ', 345.0000,1,   1,   1,   1,1.05257,  -4.3677,1.10000,0.90000,1.10000,0.90000
    45,'INTERM1G    ',  26.0000,2,   1,   1,   1,1.05000,   0.2795,1.10000,0.90000,1.10000,0.90000
    46,'OLIVE       ', 230.0000,1,   2,   1,   1,1.03475, -47.6306,1.10000,0.90000,1.10000,0.90000
    47,'OWENS G     ',  11.5000,2,   2,   1,   1,1.02000, -47.2699,1.10000,0.90000,1.10000,0.90000
    48,'RINALDI     ', 230.0000,1,   2,   1,   1,1.03402, -47.8403,1.10000,0.90000,1.10000,0.90000
    49,'RINALDI     ', 500.0000,1,   2,   1,   1,1.07212, -45.4827,1.10000,0.90000,1.10000,0.90000
    50,'RIVER       ', 230.0000,1,   2,   1,   1,1.02362, -51.8455,1.10000,0.90000,1.10000,0.90000
    51,'STA B       ', 138.0000,1,   2,   1,   1,1.03256, -51.9020,1.10000,0.90000,1.10000,0.90000
    52,'STA B1      ', 287.0000,1,   2,   1,   1,1.03663, -50.7184,1.10000,0.90000,1.10000,0.90000
    53,'STA B2      ', 287.0000,1,   2,   1,   1,1.03663, -50.7184,1.10000,0.90000,1.10000,0.90000
    54,'STA BLD     ', 230.0000,1,   2,   1,   1,1.02728, -52.1102,1.10000,0.90000,1.10000,0.90000
    55,'STA E       ', 230.0000,1,   2,   1,   1,1.02516, -50.0584,1.10000,0.90000,1.10000,0.90000
    56,'STA E       ', 500.0000,1,   2,   1,   1,1.04304, -47.6649,1.10000,0.90000,1.10000,0.90000
    57,'STA F       ', 230.0000,1,   2,   1,   1,1.02484, -51.8806,1.10000,0.90000,1.10000,0.90000
    58,'STA G       ', 230.0000,1,   2,   1,   1,1.02394, -51.1757,1.10000,0.90000,1.10000,0.90000
    59,'STA J       ', 230.0000,1,   2,   1,   1,1.03112, -48.9150,1.10000,0.90000,1.10000,0.90000
    60,'SYLMARLA    ', 230.0000,1,   2,   1,   1,1.03832, -47.1505,1.10000,0.90000,1.10000,0.90000
    61,'SYLMAR S    ', 230.0000,1,   2,   1,   1,1.02073, -48.2569,1.10000,0.90000,1.10000,0.90000
    62,'VALLEY      ', 230.0000,1,   2,   1,   1,1.02930, -49.0320,1.10000,0.90000,1.10000,0.90000
    63,'VICTORVL    ', 287.0000,1,   2,   1,   1,1.05209, -44.4941,1.10000,0.90000,1.10000,0.90000
    64,'VICTORVL    ', 500.0000,1,   2,   1,   1,1.05865, -42.4767,1.10000,0.90000,1.10000,0.90000
    65,'MONTA G1    ',  20.0000,2,   1,   1,   1,1.00000,  56.5929,1.10000,0.90000,1.10000,0.90000
    66,'MONTANA     ', 500.0000,1,   1,   1,   1,1.04928,  48.2006,1.10000,0.90000,1.10000,0.90000
    67,'BIG EDDY    ', 115.0000,1,   1,   1,   1,1.06863, -16.9331,1.10000,0.90000,1.10000,0.90000
    68,'BIG EDDY    ', 230.0000,1,   1,   1,   1,1.06591, -14.5704,1.10000,0.90000,1.10000,0.90000
    69,'BIG EDDY    ', 500.0000,1,   1,   1,   1,1.08919, -13.3102,1.10000,0.90000,1.10000,0.90000
    70,'DALLES21    ',  13.8000,2,   1,   1,   1,1.05500,  -7.9405,1.10000,0.90000,1.10000,0.90000
    71,'CELILO      ', 230.0000,1,   1,   1,   1,1.06158, -15.0765,1.10000,0.90000,1.10000,0.90000
    72,'CELILOCA    ', 500.0000,1,   1,   1,   1,1.08964, -13.4183,1.10000,0.90000,1.10000,0.90000
    73,'COLSTRP     ', 500.0000,1,   1,   1,   1,1.07839,  -1.3605,1.10000,0.90000,1.10000,0.90000
    74,'COULEE      ', 500.0000,1,   1,   1,   1,1.07000,   0.1633,1.10000,0.90000,1.10000,0.90000
    75,'GARRISON    ', 500.0000,1,   1,   1,   1,1.03705, -12.1595,1.10000,0.90000,1.10000,0.90000
    76,'JOHN DAY    ', 500.0000,1,   1,   1,   1,1.08283, -11.1235,1.10000,0.90000,1.10000,0.90000
    77,'JOHN DAY    ',  13.8000,3,   1,   1,   1,1.00000,   0.0000,1.10000,0.90000,1.10000,0.90000
    78,'HANFORD     ', 500.0000,1,   1,   1,   1,1.04946,   0.2245,1.10000,0.90000,1.10000,0.90000
    79,'NORTH G3    ',  20.0000,2,   1,   1,   1,1.00000,  26.5855,1.10000,0.90000,1.10000,0.90000
    80,'NORTH       ', 500.0000,1,   1,   1,   1,1.04993,  12.1069,1.10000,0.90000,1.10000,0.90000
    81,'BURNS       ', 500.0000,1,   1,   1,   1,1.05295, -19.5521,1.10000,0.90000,1.10000,0.90000
    82,'GRIZZLY     ', 500.0000,1,   1,   1,   1,1.06740, -17.1484,1.10000,0.90000,1.10000,0.90000
    83,'MALIN       ', 500.0000,1,   1,   1,   1,1.05433, -23.3465,1.10000,0.90000,1.10000,0.90000
    84,'MIDPOINT    ', 500.0000,1,   1,   1,   1,1.06194,  -5.1991,1.10000,0.90000,1.10000,0.90000
    85,'MIDPOINT    ', 345.0000,1,   1,   1,   1,0.99845,  -1.5718,1.10000,0.90000,1.10000,0.90000
    86,'SUMMER L    ', 500.0000,1,   1,   1,   1,1.05818, -18.2356,1.10000,0.90000,1.10000,0.90000
    87,'GRIZZLY1    ', 500.0000,1,   1,   1,   1,1.06532, -18.7483,1.10000,0.90000,1.10000,0.90000
    88,'GRIZZLY2    ', 500.0000,1,   1,   1,   1,1.07143, -16.0163,1.10000,0.90000,1.10000,0.90000
    89,'MALIN1      ', 500.0000,1,   1,   1,   1,1.05061, -14.1388,1.10000,0.90000,1.10000,0.90000
    90,'MALIN2      ', 500.0000,1,   1,   1,   1,1.06088, -19.8067,1.10000,0.90000,1.10000,0.90000
    91,'GRIZZLY3    ', 500.0000,1,   1,   1,   1,1.07997, -21.7965,1.10000,0.90000,1.10000,0.90000
    92,'GRIZZLY4    ', 500.0000,1,   1,   1,   1,1.06943, -17.2257,1.10000,0.90000,1.10000,0.90000
    93,'GRIZZLY5    ', 500.0000,1,   1,   1,   1,1.06860, -22.4497,1.10000,0.90000,1.10000,0.90000
    94,'GRIZZLY6    ', 500.0000,1,   1,   1,   1,1.07170, -17.8617,1.10000,0.90000,1.10000,0.90000
    95,'GRIZZLY7    ', 500.0000,1,   1,   1,   1,1.07926, -22.0569,1.10000,0.90000,1.10000,0.90000
    96,'GRIZZLY8    ', 500.0000,1,   1,   1,   1,1.06916, -17.2255,1.10000,0.90000,1.10000,0.90000
    97,'GRIZZLY9    ', 500.0000,1,   1,   1,   1,1.06760, -22.7464,1.10000,0.90000,1.10000,0.90000
    98,'GRIZZLYA    ', 500.0000,1,   1,   1,   1,1.07104, -17.8950,1.10000,0.90000,1.10000,0.90000
    99,'BURNS1      ', 500.0000,1,   1,   1,   1,0.97283,   8.0429,1.10000,0.90000,1.10000,0.90000
   100,'CORTINA     ', 200.0000,1,   3,   1,   1,1.13096, -34.9752,1.10000,0.90000,1.10000,0.90000
   101,'COTWDPGE    ', 200.0000,1,   3,   1,   1,1.13613, -30.4894,1.10000,0.90000,1.10000,0.90000
   102,'DIABLO      ', 500.0000,1,   2,   1,   1,1.05297, -46.1275,1.10000,0.90000,1.10000,0.90000
   103,'DIABLO1     ',  25.0000,2,   2,   1,   1,0.98000, -42.3253,1.10000,0.90000,1.10000,0.90000
   104,'GATES       ', 500.0000,1,   2,   1,   1,1.04707, -47.6834,1.10000,0.90000,1.10000,0.90000
   105,'GLENN       ', 200.0000,1,   3,   1,   1,1.14090, -34.1997,1.10000,0.90000,1.10000,0.90000
   106,'LOGAN CR    ', 200.0000,1,   3,   1,   1,1.14015, -34.5847,1.10000,0.90000,1.10000,0.90000
   107,'LOSBANOS    ', 500.0000,1,   2,   1,   1,1.04926, -49.5288,1.10000,0.90000,1.10000,0.90000
   108,'MIDWAY      ', 500.0000,1,   2,   1,   1,1.05934, -48.6066,1.10000,0.90000,1.10000,0.90000
   109,'MIDWAY      ', 200.0000,1,   2,   1,   1,1.16705, -51.4445,1.10000,0.90000,1.10000,0.90000
   110,'MOSSLAND    ', 500.0000,1,   2,   1,   1,1.04639, -49.7936,1.10000,0.90000,1.10000,0.90000
   111,'OLINDA      ', 500.0000,1,   3,   1,   1,1.03727, -31.0697,1.10000,0.90000,1.10000,0.90000
   112,'ROUND MT    ',  20.0000,2,   3,   1,   1,1.02000, -15.0801,1.10000,0.90000,1.10000,0.90000
   113,'ROUND MT    ', 200.0000,1,   3,   1,   1,1.12385, -25.1412,1.10000,0.90000,1.10000,0.90000
   114,'ROUND MT    ', 500.0000,1,   3,   1,   1,1.03453, -27.9326,1.10000,0.90000,1.10000,0.90000
   115,'TABLE MT    ', 500.0000,1,   3,   1,   1,1.01341, -32.0710,1.10000,0.90000,1.10000,0.90000
   116,'TEVATR      ',  20.0000,2,   3,   1,   1,1.05000, -35.6862,1.10000,0.90000,1.10000,0.90000
   117,'TEVATR      ', 200.0000,1,   3,   1,   1,1.12743, -39.6344,1.10000,0.90000,1.10000,0.90000
   118,'TEVATR2     ',  20.0000,2,   3,   1,   1,1.00000, -30.7829,1.10000,0.90000,1.10000,0.90000
   119,'TEVATR      ', 500.0000,1,   3,   1,   1,0.99815, -38.9950,1.10000,0.90000,1.10000,0.90000
   120,'OLINDA1     ', 500.0000,1,   3,   1,   1,1.05025, -24.0944,1.10000,0.90000,1.10000,0.90000
   121,'OLINDA2     ', 500.0000,1,   3,   1,   1,1.01142, -38.0306,1.10000,0.90000,1.10000,0.90000
   122,'OLINDA3     ', 500.0000,1,   3,   1,   1,1.02785, -30.7902,1.10000,0.90000,1.10000,0.90000
   123,'OLINDA4     ', 500.0000,1,   3,   1,   1,0.98098, -46.6003,1.10000,0.90000,1.10000,0.90000
   124,'ROUND1      ', 500.0000,1,   3,   1,   1,1.04054, -22.0282,1.10000,0.90000,1.10000,0.90000
   125,'ROUND2      ', 500.0000,1,   3,   1,   1,1.01078, -36.1457,1.10000,0.90000,1.10000,0.90000
   126,'ROUND3      ', 500.0000,1,   3,   1,   1,1.04054, -22.0282,1.10000,0.90000,1.10000,0.90000
   127,'ROUND4      ', 500.0000,1,   3,   1,   1,1.01078, -36.1457,1.10000,0.90000,1.10000,0.90000
   128,'TABLE1      ', 500.0000,1,   3,   1,   1,1.01257, -25.8077,1.10000,0.90000,1.10000,0.90000
   129,'TABLE2      ', 500.0000,1,   3,   1,   1,0.99882, -45.3418,1.10000,0.90000,1.10000,0.90000
   130,'TABLE3      ', 500.0000,1,   3,   1,   1,1.01754, -27.3183,1.10000,0.90000,1.10000,0.90000
   131,'TABLE4      ', 500.0000,1,   3,   1,   1,0.99876, -41.4230,1.10000,0.90000,1.10000,0.90000
   132,'TEVATR1     ', 500.0000,1,   2,   1,   1,0.97999, -36.9430,1.10000,0.90000,1.10000,0.90000
   133,'TEVATR2     ', 500.0000,1,   2,   1,   1,1.07047, -51.7026,1.10000,0.90000,1.10000,0.90000
   134,'TEVATR3     ', 500.0000,1,   2,   1,   1,0.97141, -35.0601,1.10000,0.90000,1.10000,0.90000
   135,'GATES1      ', 500.0000,1,   2,   1,   1,1.06807, -49.9938,1.10000,0.90000,1.10000,0.90000
   136,'DEVERS      ', 500.0000,1,   2,   1,   1,1.03539, -43.5229,1.10000,0.90000,1.10000,0.90000
   137,'EAGLROCK    ', 230.0000,1,   2,   1,   1,1.01009, -52.7615,1.10000,0.90000,1.10000,0.90000
   138,'ELDORADO    ',  20.0000,2,   2,   1,   1,1.02000, -25.9749,1.10000,0.90000,1.10000,0.90000
   139,'ELDORADO    ', 500.0000,1,   2,   1,   1,1.05122, -33.0964,1.10000,0.90000,1.10000,0.90000
   140,'LITEHIPE    ',  20.0000,2,   2,   1,   1,1.02000, -49.6265,1.10000,0.90000,1.10000,0.90000
   141,'LITEHIPE    ', 230.0000,1,   2,   1,   1,1.01186, -55.7759,1.10000,0.90000,1.10000,0.90000
   142,'LUGO        ', 500.0000,1,   2,   1,   1,1.05498, -46.0909,1.10000,0.90000,1.10000,0.90000
   143,'MESA CAL    ', 230.0000,1,   2,   1,   1,1.00705, -55.0611,1.10000,0.90000,1.10000,0.90000
   144,'MIRALOMA    ',  20.0000,2,   2,   1,   1,1.05000, -45.4431,1.10000,0.90000,1.10000,0.90000
   145,'MIRALOMA    ', 500.0000,1,   2,   1,   1,1.04087, -49.6805,1.10000,0.90000,1.10000,0.90000
   146,'MIRALOMA    ', 230.0000,1,   2,   1,   1,1.03821, -50.1264,1.10000,0.90000,1.10000,0.90000
   147,'MOHAVE      ', 500.0000,1,   2,   1,   1,1.06999, -29.3620,1.10000,0.90000,1.10000,0.90000
   148,'MOHAV1CC    ',  22.0000,2,   2,   1,   1,1.05000, -21.0415,1.10000,0.90000,1.10000,0.90000
   149,'PARDEE      ',  20.0000,2,   2,   1,   1,1.01000, -39.6011,1.10000,0.90000,1.10000,0.90000
   150,'PARDEE      ', 230.0000,1,   2,   1,   1,1.00600, -51.6834,1.10000,0.90000,1.10000,0.90000
   151,'SERRANO     ', 500.0000,1,   2,   1,   1,1.04128, -50.0791,1.10000,0.90000,1.10000,0.90000
   152,'VALLEY      ', 500.0000,1,   2,   1,   1,1.03694, -47.7624,1.10000,0.90000,1.10000,0.90000
   153,'VINCENT     ', 500.0000,1,   2,   1,   1,1.06118, -48.9466,1.10000,0.90000,1.10000,0.90000
   154,'VINCENT     ', 230.0000,1,   2,   1,   1,0.99489, -51.6340,1.10000,0.90000,1.10000,0.90000
   155,'CAMP WIL    ', 345.0000,1,   1,   1,   1,1.04288,  -2.4176,1.10000,0.90000,1.10000,0.90000
   156,'BENLOMND    ', 345.0000,1,   1,   1,   1,1.04464,  -3.3943,1.10000,0.90000,1.10000,0.90000
   157,'BENLOMND    ', 230.0000,1,   1,   1,   1,1.04624,  -3.9599,1.10000,0.90000,1.10000,0.90000
   158,'EMERY       ', 345.0000,1,   1,   1,   1,1.03705,   4.8882,1.10000,0.90000,1.10000,0.90000
   159,'EMERY       ',  20.0000,2,   1,   1,   1,1.05000,   9.6036,1.10000,0.90000,1.10000,0.90000
   160,'MONA        ', 345.0000,1,   1,   1,   1,1.05596,  -2.0089,1.10000,0.90000,1.10000,0.90000
   161,'NAUGHTON    ', 230.0000,1,   1,   1,   1,1.04453,   0.6129,1.10000,0.90000,1.10000,0.90000
   162,'NAUGHT      ',  20.0000,2,   1,   1,   1,1.00000,   3.4126,1.10000,0.90000,1.10000,0.90000
   163,'PINTO PS    ', 345.0000,1,   1,   1,   1,1.03679,  -2.4431,1.10000,0.90000,1.10000,0.90000
   164,'PINTO       ', 345.0000,1,   1,   1,   1,1.04044,  -1.4045,1.10000,0.90000,1.10000,0.90000
   165,'SPAN FRK    ', 345.0000,1,   1,   1,   1,1.03514,  -1.0936,1.10000,0.90000,1.10000,0.90000
   166,'SIGURD      ', 345.0000,1,   1,   1,   1,1.05190,  -0.5471,1.10000,0.90000,1.10000,0.90000
   167,'TERMINAL    ', 345.0000,1,   1,   1,   1,1.03911,  -3.4222,1.10000,0.90000,1.10000,0.90000
   168,'MALIN3      ', 500.0000,1,   3,   1,   1,1.06105, -19.7698,1.10000,0.90000,1.10000,0.90000
   169,'MALIN4      ', 500.0000,1,   3,   1,   1,1.02556, -31.6689,1.10000,0.90000,1.10000,0.90000
   170,'MALIN5      ', 500.0000,1,   3,   1,   1,1.06179, -19.0146,1.10000,0.90000,1.10000,0.90000
   171,'MALIN6      ', 500.0000,1,   3,   1,   1,1.02702, -31.6982,1.10000,0.90000,1.10000,0.90000
   172,'MALIN7      ', 500.0000,1,   3,   1,   1,1.05696, -17.4405,1.10000,0.90000,1.10000,0.90000
   173,'MALIN8      ', 500.0000,1,   3,   1,   1,1.03194, -37.1511,1.10000,0.90000,1.10000,0.90000
   174,'MIDWAY1     ', 500.0000,1,   2,   1,   1,1.04651, -48.2400,1.10000,0.90000,1.10000,0.90000
   175,'MIDWAY2     ', 500.0000,1,   2,   1,   1,1.05458, -49.3094,1.10000,0.90000,1.10000,0.90000
   176,'MIDWAY3     ', 500.0000,1,   2,   1,   1,1.04624, -48.2349,1.10000,0.90000,1.10000,0.90000
   177,'MIDWAY4     ', 500.0000,1,   2,   1,   1,1.05470, -49.3108,1.10000,0.90000,1.10000,0.90000
   178,'MIDWAY5     ', 500.0000,1,   2,   1,   1,1.04598, -48.2225,1.10000,0.90000,1.10000,0.90000
   179,'MIDWAY6     ', 500.0000,1,   2,   1,   1,1.05705, -49.2871,1.10000,0.90000,1.10000,0.90000
   180,'BURNS2      ', 500.0000,1,   1,   1,   1,0.98436,  -6.6869,1.10000,0.90000,1.10000,0.90000
 0 /End of Bus data, Begin Load data
     2,'BL',1,   1,   1,  1750.000,   -56.000,     0.000,     0.000,     0.000,     0.000,   1,1,0
     4,'BL',1,   1,   1,   100.000,     0.000,     0.000,     0.000,     0.000,     0.000,   1,1,0
     5,'BL',1,   1,   1,  2350.000,  -127.000,     0.000,     0.000,     0.000,     0.000,   1,1,0
     6,'BL',1,   1,   1,   100.000,     0.000,     0.000,     0.000,     0.000,     0.000,   1,1,0
     8,'BL',1,   1,   1,   239.000,   -56.000,     0.000,     0.000,     0.000,     0.000,   1,1,0
     9,'BL',1,   1,   1,   100.000,     0.000,     0.000,     0.000,     0.000,     0.000,   1,1,0
    10,'BL',1,   1,   1,   139.700,    23.800,     0.000,     0.000,     0.000,     0.000,   1,1,0
    11,'BL',1,   1,   1,   100.000,     0.000,     0.000,     0.000,     0.000,     0.000,   1,1,0
    12,'BL',1,   2,   1,    90.000,    70.000,     0.000,     0.000,     0.000,     0.000,   1,1,0
    13,'BL',1,   2,   1,   100.000,     0.000,     0.000,     0.000,     0.000,     0.000,   1,1,0
    15,'BL',1,   2,   1,   100.000,     0.000,     0.000,     0.000,     0.000,     0.000,   1,1,0
    16,'BL',1,   2,   1,   793.400,   207.000,     0.000,     0.000,     0.000,     0.000,   1,1,0
    17,'BL',1,   1,   1,   840.000,     5.000,     0.000,     0.000,     0.000,     0.000,   1,1,0
    18,'BL',1,   1,   1,   100.000,     0.000,     0.000,     0.000,     0.000,     0.000,   1,1,0
    19,'BL',1,   2,   1,   617.000,   -69.000,     0.000,     0.000,     0.000,     0.000,   1,1,0
    30,'BL',1,   1,   1,   100.000,     0.000,     0.000,     0.000,     0.000,     0.000,   1,1,0
    31,'BL',1,   1,   1,  4400.000,  1000.000,     0.000,     0.000,     0.000,     0.000,   1,1,0
    34,'BL',1,   1,   1,  3600.000,   700.000,     0.000,     0.000,     0.000,     0.000,   1,1,0
    35,'BL',1,   1,   1,   100.000,     0.000,     0.000,     0.000,     0.000,     0.000,   1,1,0
    36,'BL',1,   1,   1,   100.000,     0.000,     0.000,     0.000,     0.000,     0.000,   1,1,0
    37,'BL',1,   2,   1, -1862.000,   971.000,     0.000,     0.000,     0.000,     0.000,   1,1,0
    40,'BL',1,   2,   1,   100.000,     0.000,     0.000,     0.000,     0.000,     0.000,   1,1,0
    41,'BL',1,   2,   1,   135.000,    27.000,     0.000,     0.000,     0.000,     0.000,   1,1,0
    43,'BL',1,   2,   1,   100.000,     0.000,     0.000,     0.000,     0.000,     0.000,   1,1,0
    44,'BL',1,   1,   1,  2053.000,   907.100,     0.000,     0.000,     0.000,     0.000,   1,1,0
    45,'BL',1,   1,   1,   100.000,     0.000,     0.000,     0.000,     0.000,     0.000,   1,1,0
    46,'BL',1,   2,   1,   -72.800,   -17.000,     0.000,     0.000,     0.000,     0.000,   1,1,0
    47,'BL',1,   2,   1,   100.000,     0.000,     0.000,     0.000,     0.000,     0.000,   1,1,0
    48,'BL',1,   2,   1,   121.000,    25.000,     0.000,     0.000,     0.000,     0.000,   1,1,0
    50,'BL',1,   2,   1,   320.000,    65.000,     0.000,     0.000,     0.000,     0.000,   1,1,0
    51,'BL',1,   2,   1,   237.200,   -63.200,     0.000,     0.000,     0.000,     0.000,   1,1,0
    54,'BL',1,   2,   1,   138.000,    28.000,     0.000,     0.000,     0.000,     0.000,   1,1,0
    55,'BL',1,   2,   1,   807.800,   132.100,     0.000,     0.000,     0.000,     0.000,   1,1,0
    57,'BL',1,   2,   1,   117.000,    24.000,     0.000,     0.000,     0.000,     0.000,   1,1,0
    58,'BL',1,   2,   1,   121.000,    25.000,     0.000,     0.000,     0.000,     0.000,   1,1,0
    59,'BL',1,   2,   1,   887.700,    -6.200,     0.000,     0.000,     0.000,     0.000,   1,1,0
    60,'BL',1,   2,   1, -2771.000,  1654.000,     0.000,     0.000,     0.000,     0.000,   1,1,0
    61,'BL',1,   2,   1,   401.000,    80.600,     0.000,     0.000,     0.000,     0.000,   1,1,0
    62,'BL',1,   2,   1,   205.200,    17.600,     0.000,     0.000,     0.000,     0.000,   1,1,0
    63,'BL',1,   2,   1,  -129.000,    32.200,     0.000,     0.000,     0.000,     0.000,   1,1,0
    65,'BL',1,   1,   1,   100.000,     0.000,     0.000,     0.000,     0.000,     0.000,   1,1,0
    66,'BL',1,   1,   1,  1700.000,   300.000,     0.000,     0.000,     0.000,     0.000,   1,1,0
    67,'BL',1,   1,   1,   160.000,    31.250,     0.000,     0.000,     0.000,     0.000,   1,1,0
    68,'BL',1,   1,   1,   -67.500,   160.000,     0.000,     0.000,     0.000,     0.000,   1,1,0
    69,'BL',1,   1,   1,   -44.200,    22.000,     0.000,     0.000,     0.000,     0.000,   1,1,0
    70,'BL',1,   1,   1,   100.000,     0.000,     0.000,     0.000,     0.000,     0.000,   1,1,0
    71,'BL',1,   1,   1,  3137.000,  1681.000,     0.000,     0.000,     0.000,     0.000,   1,1,0
    73,'BL',1,   1,   1, -1525.000,   -50.000,     0.000,     0.000,     0.000,     0.000,   1,1,0
    75,'BL',1,   1,   1,  2584.000,   394.000,     0.000,     0.000,     0.000,     0.000,   1,1,0
    76,'BL',1,   1,   1,  3200.000,  1100.000,     0.000,     0.000,     0.000,     0.000,   1,1,0
    77,'BL',1,   1,   1,   100.000,     0.000,     0.000,     0.000,     0.000,     0.000,   1,1,0
    78,'BL',1,   1,   1,  3500.000,   500.000,     0.000,     0.000,     0.000,     0.000,   1,1,0
    79,'BL',1,   1,   1,   100.000,     0.000,     0.000,     0.000,     0.000,     0.000,   1,1,0
    80,'BL',1,   1,   1,  5000.000,   400.000,     0.000,     0.000,     0.000,     0.000,   1,1,0
    82,'BL',1,   1,   1,   -66.600,   -97.000,     0.000,     0.000,     0.000,     0.000,   1,1,0
    83,'BL',1,   1,   1,  -339.000,  -119.000,     0.000,     0.000,     0.000,     0.000,   1,1,0
    85,'BL',1,   1,   1,   610.000,  -414.000,     0.000,     0.000,     0.000,     0.000,   1,1,0
   100,'BL',1,   3,   1,   -43.300,    20.000,     0.000,     0.000,     0.000,     0.000,   1,1,0
   101,'BL',1,   3,   1,   210.400,   -77.000,     0.000,     0.000,     0.000,     0.000,   1,1,0
   102,'BL',1,   2,   1,    50.000,    25.000,     0.000,     0.000,     0.000,     0.000,   1,1,0
   103,'BL',1,   2,   1,   100.000,     0.000,     0.000,     0.000,     0.000,     0.000,   1,1,0
   104,'BL',1,   2,   1,   305.000,    -7.600,     0.000,     0.000,     0.000,     0.000,   1,1,0
   105,'BL',1,   3,   1,    27.500,    -0.100,     0.000,     0.000,     0.000,     0.000,   1,1,0
   106,'BL',1,   3,   1,     8.010,     0.000,     0.000,     0.000,     0.000,     0.000,   1,1,0
   107,'BL',1,   2,   1,   265.000,    14.000,     0.000,     0.000,     0.000,     0.000,   1,1,0
   108,'BL',1,   2,   1,    55.600,  -329.000,     0.000,     0.000,     0.000,     0.000,   1,1,0
   109,'BL',1,   2,   1,   777.600,    32.600,     0.000,     0.000,     0.000,     0.000,   1,1,0
   110,'BL',1,   2,   1,    40.000,    21.500,     0.000,     0.000,     0.000,     0.000,   1,1,0
   111,'BL',1,   3,   1,  -189.000,    61.500,     0.000,     0.000,     0.000,     0.000,   1,1,0
   112,'BL',1,   3,   1,   100.000,     0.000,     0.000,     0.000,     0.000,     0.000,   1,1,0
   113,'BL',1,   3,   1,   148.000,     0.000,     0.000,     0.000,     0.000,     0.000,   1,1,0
   115,'BL',1,   3,   1,    -0.700,   118.500,     0.000,     0.000,     0.000,     0.000,   1,1,0
   116,'BL',1,   3,   1,   100.000,     0.000,     0.000,     0.000,     0.000,     0.000,   1,1,0
   117,'BL',1,   3,   1,   884.000,    54.800,     0.000,     0.000,     0.000,     0.000,   1,1,0
   118,'BL',1,   3,   1,   100.000,     0.000,     0.000,     0.000,     0.000,     0.000,   1,1,0
   119,'BL',1,   3,   1,  5661.000,  3491.000,     0.000,     0.000,     0.000,     0.000,   1,1,0
   136,'BL',1,   2,   1,   856.000,    19.600,     0.000,     0.000,     0.000,     0.000,   1,1,0
   137,'BL',1,   2,   1,   175.000,    18.000,     0.000,     0.000,     0.000,     0.000,   1,1,0
   138,'BL',1,   2,   1,   100.000,     0.000,     0.000,     0.000,     0.000,     0.000,   1,1,0
   139,'BL',1,   2,   1,   902.300,   -11.400,     0.000,     0.000,     0.000,     0.000,   1,1,0
   140,'BL',1,   2,   1,   100.000,     0.000,     0.000,     0.000,     0.000,     0.000,   1,1,0
   141,'BL',1,   2,   1,  3191.000,   630.000,     0.000,     0.000,     0.000,     0.000,   1,1,0
   142,'BL',1,   2,   1,   204.200,   -28.200,     0.000,     0.000,     0.000,     0.000,   1,1,0
   143,'BL',1,   2,   1,   377.400,    64.500,     0.000,     0.000,     0.000,     0.000,   1,1,0
   144,'BL',1,   2,   1,   100.000,     0.000,     0.000,     0.000,     0.000,     0.000,   1,1,0
   145,'BL',1,   2,   1,  3098.000,  1189.000,     0.000,     0.000,     0.000,     0.000,   1,1,0
   148,'BL',1,   2,   1,   100.000,     0.000,     0.000,     0.000,     0.000,     0.000,   1,1,0
   149,'BL',1,   2,   1,   100.000,     0.000,     0.000,     0.000,     0.000,     0.000,   1,1,0
   150,'BL',1,   2,   1,  3118.000,    78.000,     0.000,     0.000,     0.000,     0.000,   1,1,0
   151,'BL',1,   2,   1,  1230.000,    72.800,     0.000,     0.000,     0.000,     0.000,   1,1,0
   152,'BL',1,   2,   1,   406.000,    41.000,     0.000,     0.000,     0.000,     0.000,   1,1,0
   154,'BL',1,   2,   1,  1066.000,   -10.800,     0.000,     0.000,     0.000,     0.000,   1,1,0
   155,'BL',1,   1,   1,   457.700,    81.700,     0.000,     0.000,     0.000,     0.000,   1,1,0
   156,'BL',1,   1,   1,    33.900,    11.900,     0.000,     0.000,     0.000,     0.000,   1,1,0
   157,'BL',1,   1,   1,   148.000,    -7.900,     0.000,     0.000,     0.000,     0.000,   1,1,0
   158,'BL',1,   1,   1,   116.100,    38.400,     0.000,     0.000,     0.000,     0.000,   1,1,0
   159,'BL',1,   1,   1,   100.000,     0.000,     0.000,     0.000,     0.000,     0.000,   1,1,0
   160,'BL',1,   1,   1,   -62.000,    12.800,     0.000,     0.000,     0.000,     0.000,   1,1,0
   161,'BL',1,   1,   1,   255.000,   100.000,     0.000,     0.000,     0.000,     0.000,   1,1,0
   162,'BL',1,   1,   1,   100.000,     0.000,     0.000,     0.000,     0.000,     0.000,   1,1,0
   164,'BL',1,   1,   1,    31.600,    11.500,     0.000,     0.000,     0.000,     0.000,   1,1,0
   165,'BL',1,   1,   1,   141.200,    71.400,     0.000,     0.000,     0.000,     0.000,   1,1,0
   166,'BL',1,   1,   1,   379.000,   -43.000,     0.000,     0.000,     0.000,     0.000,   1,1,0
   167,'BL',1,   1,   1,   185.000,    78.500,     0.000,     0.000,     0.000,     0.000,   1,1,0
 0 /End of Load data, Begin Fixed shunt data
     7,'1 ',1,     0.000,  -113.000
     8,'1 ',1,     0.000,  -155.000
    12,'1 ',1,     0.000,  -190.000
    14,'1 ',1,     0.000,  -391.000
    16,'1 ',1,     0.000,  -146.000
    17,'1 ',1,     0.000,   390.000
    19,'1 ',1,     0.000,  -427.000
    37,'1 ',1,     0.000,   912.000
    44,'1 ',1,     0.000,   430.000
    49,'1 ',1,     0.000,   -80.000
    60,'1 ',1,     0.000,  2146.000
    63,'1 ',1,     0.000,  -108.000
    68,'1 ',1,     0.000,   576.850
    71,'1 ',1,     0.000,   792.000
    72,'1 ',1,     0.000,   462.000
    76,'1 ',1,     0.000,  1019.350
    78,'1 ',1,     0.000,   550.000
    80,'1 ',1,     0.000,  1200.000
    81,'1 ',1,     0.000,  -220.000
    82,'1 ',1,     0.000,  -674.000
    83,'1 ',1,     0.000,  -110.000
    84,'1 ',1,     0.000,  -220.000
    85,'1 ',1,     0.000,  -870.000
   104,'1 ',1,     0.000,   -91.000
   108,'1 ',1,     0.000,  -327.000
   109,'1 ',1,     0.000,  -130.000
   113,'1 ',1,     0.000,  -128.000
   114,'1 ',1,     0.000,   -91.000
   115,'1 ',1,     0.000,   -91.000
   117,'1 ',1,     0.000,   -32.000
   119,'1 ',1,     0.000,  1500.000
   139,'1 ',1,     0.000,  -319.000
   145,'1 ',1,     0.000,   400.000
   147,'1 ',1,     0.000,  -196.000
   154,'1 ',1,     0.000,  -190.000
   155,'1 ',1,     0.000,   -60.000
   158,'1 ',1,     0.000,  -220.000
   164,'1 ',1,     0.000,   -18.000
   166,'1 ',1,     0.000,   -50.000
   180,'1 ',1,     0.000,  -220.000
 0 /End of Fixed shunt data, Begin Generator data
     4,'1 ',   800.000,   123.046,   300.000,  -300.000,1.04000,     0,  1600.000, 0.00000E+0, 2.50000E-1, 0.00000E+0, 0.00000E+0,1.00000,1,  100.0,  9999.000,     0.000,   1,1.0000
     6,'1 ',  1048.000,  -132.903,   400.000,  -400.000,0.95000,     0,  2100.000, 0.00000E+0, 2.50000E-1, 0.00000E+0, 0.00000E+0,1.00000,1,  100.0,  9999.000,     0.000,   1,1.0000
     9,'1 ',  2160.000,   -30.483,   700.000,  -500.000,1.00000,     0,  4300.000, 0.00000E+0, 2.50000E-1, 0.00000E+0, 0.00000E+0,1.00000,1,  100.0,  9999.000,     0.000,   1,1.0000
    11,'1 ',  2050.000,   464.823,   900.000,  -900.000,1.00000,     0,  4100.000, 0.00000E+0, 2.50000E-1, 0.00000E+0, 0.00000E+0,1.00000,1,  100.0,  9999.000,     0.000,   1,1.0000
    13,'1 ',  1690.000,   195.561,   700.000,  -280.000,1.00000,     0,  3400.000, 0.00000E+0, 2.50000E-1, 0.00000E+0, 0.00000E+0,1.00000,1,  100.0,  9999.000,     0.000,   1,1.0000
    15,'1 ',  2640.000,   378.087,  1300.000,  -900.000,0.96000,     0,  5300.000, 0.00000E+0, 2.50000E-1, 0.00000E+0, 0.00000E+0,1.00000,1,  100.0,  9999.000,     0.000,   1,1.0000
    18,'1 ',   962.000,   148.780,   300.000,  -300.000,1.00000,     0,  2000.000, 0.00000E+0, 2.50000E-1, 0.00000E+0, 0.00000E+0,1.00000,1,  100.0,  9999.000,     0.000,   1,1.0000
    30,'1 ',  4450.000,  1011.056,  4000.000, -4000.000,1.00000,     0,  8900.000, 0.00000E+0, 2.50000E-1, 0.00000E+0, 0.00000E+0,1.00000,1,  100.0,  9999.000,     0.000,   1,1.0000
    35,'1 ',  4480.000,  1150.156,  5320.000, -3500.000,1.02000,     0,  9000.000, 0.00000E+0, 2.50000E-1, 0.00000E+0, 0.00000E+0,1.00000,1,  100.0,  9999.000,     0.000,   1,1.0000
    36,'1 ',  1640.000,   285.661,   600.000,  -525.000,1.00900,     0,  3300.000, 0.00000E+0, 2.50000E-1, 0.00000E+0, 0.00000E+0,1.00000,1,  100.0,  9999.000,     0.000,   1,1.0000
    40,'1 ',   200.000,   -52.158,   268.000,  -134.000,1.02000,     0,   400.000, 0.00000E+0, 2.50000E-1, 0.00000E+0, 0.00000E+0,1.00000,1,  100.0,  9999.000,     0.000,   1,1.0000
    43,'1 ',   325.000,    68.267,   300.000,  -220.000,1.00000,     0,   650.000, 0.00000E+0, 2.50000E-1, 0.00000E+0, 0.00000E+0,1.00000,1,  100.0,  9999.000,     0.000,   1,1.0000
    45,'1 ',  1780.000,   534.587,   850.000,  -440.000,1.05000,     0,  3600.000, 0.00000E+0, 2.50000E-1, 0.00000E+0, 0.00000E+0,1.00000,1,  100.0,  9999.000,     0.000,   1,1.0000
    47,'1 ',   110.000,    29.078,   100.000,  -100.000,1.02000,     0,   220.000, 0.00000E+0, 2.50000E-1, 0.00000E+0, 0.00000E+0,1.00000,1,  100.0,  9999.000,     0.000,   1,1.0000
    65,'1 ',  2910.000,   953.293,  1500.000, -1000.000,1.00000,     0,  5800.000, 0.00000E+0, 2.50000E-1, 0.00000E+0, 0.00000E+0,1.00000,1,  100.0,  9999.000,     0.000,   1,1.0000
    70,'1 ',  1301.000,   431.526,   692.000,  -711.000,1.05500,     0,  2600.000, 0.00000E+0, 2.50000E-1, 0.00000E+0, 0.00000E+0,1.00000,1,  100.0,  9999.000,     0.000,   1,1.0000
    77,'1 ',  5174.989,   855.300,  2649.000, -1850.000,1.00000,     0, 10400.000, 0.00000E+0, 2.50000E-1, 0.00000E+0, 0.00000E+0,1.00000,1,  100.0,  9999.000,     0.000,   1,1.0000
    79,'1 ',  9950.000,  1853.928,  5780.000, -2000.000,1.00000,     0, 20000.000, 0.00000E+0, 2.50000E-1, 0.00000E+0, 0.00000E+0,1.00000,1,  100.0,  9999.000,     0.000,   1,1.0000
   103,'1 ',   765.000,  -206.255,   330.000,  -310.000,0.98000,     0,  1500.000, 0.00000E+0, 2.50000E-1, 0.00000E+0, 0.00000E+0,1.00000,1,  100.0,  9999.000,     0.000,   1,1.0000
   112,'1 ',  1057.000,    25.688,   400.000,  -400.000,1.02000,     0,  2100.000, 0.00000E+0, 2.50000E-1, 0.00000E+0, 0.00000E+0,1.00000,1,  100.0,  9999.000,     0.000,   1,1.0000
   116,'1 ',   594.000,   192.365,   300.000,  -300.000,1.05000,     0,  1200.000, 0.00000E+0, 2.50000E-1, 0.00000E+0, 0.00000E+0,1.00000,1,  100.0,  9999.000,     0.000,   1,1.0000
   118,'1 ',  3467.000,  1654.450,  2500.000, -1000.000,1.00000,     0,  6900.000, 0.00000E+0, 2.50000E-1, 0.00000E+0, 0.00000E+0,1.00000,1,  100.0,  9999.000,     0.000,   1,1.0000
   138,'1 ',   982.700,  -128.761,   300.000,  -300.000,1.02000,     0,  2000.000, 0.00000E+0, 2.50000E-1, 0.00000E+0, 0.00000E+0,1.00000,1,  100.0,  9999.000,     0.000,   1,1.0000
   140,'1 ',  3195.000,  1032.505,  2000.000,  -900.000,1.02000,     0,  6400.000, 0.00000E+0, 2.50000E-1, 0.00000E+0, 0.00000E+0,1.00000,1,  100.0,  9999.000,     0.000,   1,1.0000
   144,'1 ',  1690.000,   593.817,   900.000,  -400.000,1.05000,     0,  3400.000, 0.00000E+0, 2.50000E-1, 0.00000E+0, 0.00000E+0,1.00000,1,  100.0,  9999.000,     0.000,   1,1.0000
   148,'1 ',  1680.000,   446.624,   700.000,  -300.000,1.05000,     0,  3400.000, 0.00000E+0, 2.50000E-1, 0.00000E+0, 0.00000E+0,1.00000,1,  100.0,  9999.000,     0.000,   1,1.0000
   149,'1 ',  2200.000,   393.721,   600.000,  -600.000,1.01000,     0,  4400.000, 0.00000E+0, 2.50000E-1, 0.00000E+0, 0.00000E+0,1.00000,1,  100.0,  9999.000,     0.000,   1,1.0000
   159,'1 ',  1665.000,   -31.365,  9999.000, -9999.000,1.05000,     0,  3300.000, 0.00000E+0, 2.50000E-1, 0.00000E+0, 0.00000E+0,1.00000,1,  100.0,  9999.000,     0.000,   1,1.0000
   162,'1 ',   445.000,    91.732,  9999.000, -9999.000,1.00000,     0,   900.000, 0.00000E+0, 2.50000E-1, 0.00000E+0, 0.00000E+0,1.00000,1,  100.0,  9999.000,     0.000,   1,1.0000
 0 /End of Generator data, Begin Branch data
     3,     8,'1 ', 1.79000E-3, 1.98800E-2,   2.57600,    0.00,    0.00,    0.00,  0.00000,  0.00000,  0.00000,  0.00000,1,1,   0.00,   1,1.0000
     5,    17,'1 ', 9.77000E-3, 1.10000E-1,   2.00000,    0.00,    0.00,    0.00,  0.00000,  0.00000,  0.00000,  0.00000,1,2,   0.00,   1,1.0000
     5,   160,'1 ', 8.11000E-3, 1.36900E-1,   2.43480,    0.00,    0.00,    0.00,  0.00000,  0.00000,  0.00000,  0.00000,1,1,   0.00,   1,1.0000
     7,    28,'1 ',-0.00000E+0,-4.08000E-3,   0.00000,    0.00,    0.00,    0.00,  0.00000,  0.00000,  0.00000,  0.00000,1,1,   0.00,   1,1.0000
     8,    17,'1 ', 5.00000E-4, 5.30000E-3,   0.08820,    0.00,    0.00,    0.00,  0.00000,  0.00000,  0.00000,  0.00000,1,1,   0.00,   1,1.0000
     8,   163,'1 ', 4.80000E-3, 4.36000E-2,   0.70780,    0.00,    0.00,    0.00,  0.00000,  0.00000,  0.00000,  0.00000,1,2,   0.00,   1,1.0000
    12,    20,'1 ',-0.00000E+0,-6.34000E-3,   0.00000,    0.00,    0.00,    0.00,  0.00000,  0.00000,  0.00000,  0.00000,1,1,   0.00,   1,1.0000
    12,    22,'1 ',-0.00000E+0,-1.18800E-2,   0.00000,    0.00,    0.00,    0.00,  0.00000,  0.00000,  0.00000,  0.00000,1,1,   0.00,   1,1.0000
    12,   139,'1 ', 2.80000E-3, 2.11000E-2,   1.01940,    0.00,    0.00, 1630.00,  0.00000,  0.00000,  0.00000,  0.00000,1,1,   0.00,   1,1.0000
    14,    21,'1 ',-0.00000E+0,-6.34000E-3,   0.00000,    0.00,    0.00,    0.00,  0.00000,  0.00000,  0.00000,  0.00000,1,2,   0.00,   1,1.0000
    14,    24,'1 ',-0.00000E+0,-8.26000E-3,   0.00000,    0.00,    0.00,    0.00,  0.00000,  0.00000,  0.00000,  0.00000,1,1,   0.00,   1,1.0000
    14,    26,'1 ',-0.00000E+0,-1.79500E-2,   0.00000,    0.00,    0.00,    0.00,  0.00000,  0.00000,  0.00000,  0.00000,1,1,   0.00,   1,1.0000
    14,    29,'1 ',-0.00000E+0,-6.12000E-3,   0.00000,    0.00,    0.00,    0.00,  0.00000,  0.00000,  0.00000,  0.00000,1,2,   0.00,   1,1.0000
    16,    19,'1 ', 4.00000E-4, 9.60000E-3,   0.90380,    0.00,    0.00,    0.00,  0.00000,  0.00000,  0.00000,  0.00000,1,1,   0.00,   1,1.0000
    16,    19,'2 ', 4.00000E-4, 9.60000E-3,   0.90380,    0.00,    0.00,    0.00,  0.00000,  0.00000,  0.00000,  0.00000,1,1,   0.00,   1,1.0000
    16,   136,'1 ', 2.59000E-3, 2.96700E-2,   2.15300,    0.00,    0.00, 1800.00,  0.00000,  0.00000,  0.00000,  0.00000,1,1,   0.00,   1,1.0000
    16,   136,'2 ', 2.59000E-3, 2.96700E-2,   2.15300,    0.00,    0.00, 1800.00,  0.00000,  0.00000,  0.00000,  0.00000,1,1,   0.00,   1,1.0000
    19,    23,'1 ',-0.00000E+0,-1.18800E-2,   0.00000,    0.00,    0.00,    0.00,  0.00000,  0.00000,  0.00000,  0.00000,1,2,   0.00,   1,1.0000
    19,    25,'1 ',-0.00000E+0,-8.26000E-3,   0.00000,    0.00,    0.00,    0.00,  0.00000,  0.00000,  0.00000,  0.00000,1,2,   0.00,   1,1.0000
    20,    21,'1 ', 7.70000E-4, 1.80400E-2,   1.39842,    0.00,    0.00,    0.00,  0.00000,  0.00000,  0.00000,  0.00000,1,1,   0.00,   1,1.0000
    22,    23,'1 ', 2.41000E-3, 5.86500E-2,   4.86560,    0.00,    0.00,    0.00,  0.00000,  0.00000,  0.00000,  0.00000,1,1,   0.00,   1,1.0000
    24,    25,'1 ', 1.79000E-3, 4.24400E-2,   3.39220,    0.00,    0.00,    0.00,  0.00000,  0.00000,  0.00000,  0.00000,1,1,   0.00,   1,1.0000
    26,    27,'1 ', 2.07000E-3, 4.95900E-2,   3.95160,    0.00,    0.00,    0.00,  0.00000,  0.00000,  0.00000,  0.00000,1,1,   0.00,   1,1.0000
    27,   139,'1 ',-0.00000E+0,-1.79500E-2,   0.00000,    0.00,    0.00,    0.00,  0.00000,  0.00000,  0.00000,  0.00000,1,1,   0.00,   1,1.0000
    28,    29,'1 ', 1.77000E-3, 4.18900E-2,   3.34460,    0.00,    0.00,    0.00,  0.00000,  0.00000,  0.00000,  0.00000,1,1,   0.00,   1,1.0000
    31,    32,'1 ', 3.50000E-3, 7.00000E-2,   4.60600,    0.00,    0.00,    0.00,  0.00000,  0.00000,  0.00000,  0.00000,1,1,   0.00,   1,1.0000
    31,    80,'1 ', 8.30000E-4, 2.39000E-2,   3.30000,    0.00,    0.00,    0.00,  0.00000,  0.00000,  0.00000,  0.00000,1,1,   0.00,   1,1.0000
    33,    34,'1 ', 2.00000E-3, 2.00000E-2,   0.80000,    0.00,    0.00,    0.00,  0.00000,  0.00000,  0.00000,  0.00000,1,1,   0.00,   1,1.0000
    37,    38,'1 ', 7.40000E-4, 1.86100E-2,   1.40264,    0.00,    0.00,    0.00,  0.00000,  0.00000,  0.00000,  0.00000,1,1,   0.00,   1,1.0000
    37,    56,'1 ', 8.20000E-4, 1.66800E-2,   1.18802,    0.00,    0.00,    0.00,  0.00000,  0.00000,  0.00000,  0.00000,1,1,   0.00,   1,1.0000
    37,    64,'1 ',-0.00000E+0, 1.59000E-3,   0.12002,    0.00,    0.00,    0.00,  0.00000,  0.00000,  0.00000,  0.00000,1,1,   0.00,   1,1.0000
    37,    64,'2 ',-0.00000E+0, 1.59000E-3,   0.12002,    0.00,    0.00,    0.00,  0.00000,  0.00000,  0.00000,  0.00000,1,1,   0.00,   1,1.0000
    39,    46,'1 ', 2.21000E-3, 3.34600E-2,   0.07338,    0.00,    0.00,    0.00,  0.00000,  0.00000,  0.00000,  0.00000,1,1,   0.00,   1,1.0000
    39,    48,'1 ', 2.90000E-3, 3.80000E-2,   0.08240,    0.00,    0.00,    0.00,  0.00000,  0.00000,  0.00000,  0.00000,1,1,   0.00,   1,1.0000
    39,    59,'1 ', 3.09000E-3, 4.67700E-2,   0.10080,    0.00,    0.00,    0.00,  0.00000,  0.00000,  0.00000,  0.00000,1,1,   0.00,   1,1.0000
    39,    60,'1 ', 2.26000E-3, 3.42200E-2,   0.07506,    0.00,    0.00,    0.00,  0.00000,  0.00000,  0.00000,  0.00000,1,1,   0.00,   1,1.0000
    41,    55,'1 ', 4.70000E-4, 7.23000E-3,   0.01624,    0.00,    0.00,    0.00,  0.00000,  0.00000,  0.00000,  0.00000,1,2,   0.00,   1,1.0000
    41,    58,'1 ', 3.50000E-4, 5.36000E-3,   0.01204,    0.00,    0.00,    0.00,  0.00000,  0.00000,  0.00000,  0.00000,1,1,   0.00,   1,1.0000
    42,    50,'1 ', 2.20000E-3, 3.42200E-2,   0.07716,    0.00,    0.00,    0.00,  0.00000,  0.00000,  0.00000,  0.00000,1,2,   0.00,   1,1.0000
    42,    50,'2 ', 2.38000E-3, 3.66900E-2,   0.08284,    0.00,    0.00,    0.00,  0.00000,  0.00000,  0.00000,  0.00000,1,2,   0.00,   1,1.0000
    42,    57,'1 ', 2.01000E-3, 3.07400E-2,   0.06886,    0.00,    0.00,    0.00,  0.00000,  0.00000,  0.00000,  0.00000,1,2,   0.00,   1,1.0000
    42,    58,'1 ', 2.81000E-3, 4.29600E-2,   0.09648,    0.00,    0.00,    0.00,  0.00000,  0.00000,  0.00000,  0.00000,1,1,   0.00,   1,1.0000
    44,   160,'1 ', 1.80000E-3, 2.45000E-2,   0.43920,    0.00,    0.00,    0.00,  0.00000,  0.00000,  0.00000,  0.00000,1,1,   0.00,   1,1.0000
    44,   160,'2 ', 1.80000E-3, 2.45000E-2,   0.43920,    0.00,    0.00,    0.00,  0.00000,  0.00000,  0.00000,  0.00000,1,1,   0.00,   1,1.0000
    46,    48,'1 ', 2.90000E-4, 4.34000E-3,   0.00950,    0.00,    0.00,    0.00,  0.00000,  0.00000,  0.00000,  0.00000,1,2,   0.00,   1,1.0000
    48,    55,'1 ', 2.29000E-3, 1.58300E-2,   0.03060,    0.00,    0.00,    0.00,  0.00000,  0.00000,  0.00000,  0.00000,1,1,   0.00,   1,1.0000
    48,    55,'2 ', 2.29000E-3, 1.58300E-2,   0.03060,    0.00,    0.00,    0.00,  0.00000,  0.00000,  0.00000,  0.00000,1,1,   0.00,   1,1.0000
    48,    59,'1 ', 1.41000E-3, 9.67000E-3,   0.01940,    0.00,    0.00,    0.00,  0.00000,  0.00000,  0.00000,  0.00000,1,1,   0.00,   1,1.0000
    48,    59,'2 ', 1.41000E-3, 9.67000E-3,   0.01940,    0.00,    0.00,    0.00,  0.00000,  0.00000,  0.00000,  0.00000,1,1,   0.00,   1,1.0000
    48,    59,'3 ', 1.61000E-3, 9.71000E-3,   0.01928,    0.00,    0.00,    0.00,  0.00000,  0.00000,  0.00000,  0.00000,1,1,   0.00,   1,1.0000
    48,    59,'4 ', 1.61000E-3, 9.71000E-3,   0.01928,    0.00,    0.00,    0.00,  0.00000,  0.00000,  0.00000,  0.00000,1,1,   0.00,   1,1.0000
    48,    60,'1 ', 2.70000E-4, 3.93000E-3,   0.00918,    0.00,    0.00,    0.00,  0.00000,  0.00000,  0.00000,  0.00000,1,1,   0.00,   1,1.0000
    48,    60,'2 ', 2.70000E-4, 3.93000E-3,   0.00918,    0.00,    0.00,    0.00,  0.00000,  0.00000,  0.00000,  0.00000,1,1,   0.00,   1,1.0000
    48,    60,'3 ', 2.70000E-4, 3.93000E-3,   0.00918,    0.00,    0.00,    0.00,  0.00000,  0.00000,  0.00000,  0.00000,1,1,   0.00,   1,1.0000
    48,    62,'1 ', 1.38000E-3, 1.11600E-2,   0.02470,    0.00,    0.00,    0.00,  0.00000,  0.00000,  0.00000,  0.00000,1,1,   0.00,   1,1.0000
    48,    62,'2 ', 1.38000E-3, 1.11600E-2,   0.02470,    0.00,    0.00,    0.00,  0.00000,  0.00000,  0.00000,  0.00000,1,1,   0.00,   1,1.0000
    49,    64,'1 ', 8.30000E-4, 1.88400E-2,   1.66668,    0.00,    0.00,    0.00,  0.00000,  0.00000,  0.00000,  0.00000,1,2,   0.00,   1,1.0000
    50,    57,'1 ', 3.70000E-4, 3.66000E-3,   0.00830,    0.00,    0.00,    0.00,  0.00000,  0.00000,  0.00000,  0.00000,1,1,   0.00,   1,1.0000
    50,    58,'1 ', 5.50000E-4, 5.86000E-3,   0.01246,    0.00,    0.00,    0.00,  0.00000,  0.00000,  0.00000,  0.00000,1,1,   0.00,   1,1.0000
    52,    63,'1 ', 1.07000E-2, 7.90500E-2,   0.36670,    0.00,    0.00,    0.00,  0.00000,  0.00000,  0.00000,  0.00000,1,1,   0.00,   1,1.0000
    53,    63,'1 ', 1.07000E-2, 7.90500E-2,   0.36670,    0.00,    0.00,    0.00,  0.00000,  0.00000,  0.00000,  0.00000,1,1,   0.00,   1,1.0000
    54,    57,'1 ', 7.30000E-4, 1.02500E-2,   0.02558,    0.00,    0.00,    0.00,  0.00000,  0.00000,  0.00000,  0.00000,1,2,   0.00,   1,1.0000
    54,    57,'2 ', 7.30000E-4, 1.02500E-2,   0.02558,    0.00,    0.00,    0.00,  0.00000,  0.00000,  0.00000,  0.00000,1,2,   0.00,   1,1.0000
    55,    58,'1 ', 1.19000E-3, 1.24400E-2,   0.02798,    0.00,    0.00,    0.00,  0.00000,  0.00000,  0.00000,  0.00000,1,1,   0.00,   1,1.0000
    55,    58,'2 ', 1.19000E-3, 1.24400E-2,   0.02798,    0.00,    0.00,    0.00,  0.00000,  0.00000,  0.00000,  0.00000,1,1,   0.00,   1,1.0000
    55,    62,'1 ', 1.28000E-3, 9.79000E-3,   0.02120,    0.00,    0.00,    0.00,  0.00000,  0.00000,  0.00000,  0.00000,1,2,   0.00,   1,1.0000
    57,    58,'1 ', 1.10000E-3, 1.18900E-2,   0.02514,    0.00,    0.00,    0.00,  0.00000,  0.00000,  0.00000,  0.00000,1,1,   0.00,   1,1.0000
    61,   137,'1 ', 1.40000E-3, 2.64000E-2,   0.10200,    0.00,    0.00, 3070.00,  0.00000,  0.00000,  0.00000,  0.00000,1,2,   0.00,   1,1.0000
    61,   150,'1 ', 6.50000E-4, 1.18700E-2,   0.04672,    0.00,    0.00, 3070.00,  0.00000,  0.00000,  0.00000,  0.00000,1,2,   0.00,   1,1.0000
    61,   150,'2 ', 6.50000E-4, 1.18700E-2,   0.04672,    0.00,    0.00, 3070.00,  0.00000,  0.00000,  0.00000,  0.00000,1,2,   0.00,   1,1.0000
    64,   139,'1 ', 1.79000E-3, 2.52400E-2,   0.53546,    0.00,    0.00,    0.00,  0.00000,  0.00000,  0.00000,  0.00000,1,2,   0.00,   1,1.0000
    64,   139,'2 ', 1.79000E-3, 2.52400E-2,   0.53546,    0.00,    0.00,    0.00,  0.00000,  0.00000,  0.00000,  0.00000,1,2,   0.00,   1,1.0000
    64,   142,'1 ', 2.00000E-4, 4.10000E-3,   0.29620,    0.00,    0.00,    0.00,  0.00000,  0.00000,  0.00000,  0.00000,1,2,   0.00,   1,1.0000
    66,    78,'1 ', 7.00000E-4, 7.40000E-2,   4.87000,    0.00,    0.00,    0.00,  0.00000,  0.00000,  0.00000,  0.00000,1,2,   0.00,   1,1.0000
    68,    71,'1 ', 6.00000E-5, 1.31000E-3,   0.00378,    0.00,    0.00, 3020.00,  0.00000,  0.00000,  0.00000,  0.00000,1,1,   0.00,   1,1.0000
    68,    71,'2 ', 6.00000E-5, 1.16000E-3,   0.00332,    0.00,    0.00, 3020.00,  0.00000,  0.00000,  0.00000,  0.00000,1,1,   0.00,   1,1.0000
    69,    72,'1 ', 1.00000E-5, 3.00000E-4,   0.01434,    0.00,    0.00, 3450.00,  0.00000,  0.00000,  0.00000,  0.00000,1,1,   0.00,   1,1.0000
    69,    72,'2 ', 1.00000E-5, 3.00000E-4,   0.01844,    0.00,    0.00, 3450.00,  0.00000,  0.00000,  0.00000,  0.00000,1,1,   0.00,   1,1.0000
    69,    76,'1 ', 2.30000E-4, 4.51000E-3,   0.33320,    0.00,    0.00, 2175.00,  0.00000,  0.00000,  0.00000,  0.00000,1,1,   0.00,   1,1.0000
    69,    76,'2 ', 2.00000E-4, 4.46000E-3,   0.30500,    0.00,    0.00, 2175.00,  0.00000,  0.00000,  0.00000,  0.00000,1,1,   0.00,   1,1.0000
    73,    75,'1 ', 1.79000E-3, 1.40500E-2,   3.68000,    0.00,    0.00,    0.00,  0.00000,  0.00000,  0.00000,  0.00000,1,2,   0.00,   1,1.0000
    74,    78,'1 ', 1.13000E-3, 2.06900E-2,   1.85526,    0.00,    0.00,    0.00,  0.00000,  0.00000,  0.00000,  0.00000,1,2,   0.00,   1,1.0000
    75,    76,'1 ', 1.96000E-3, 3.30400E-2,   1.88000,    0.00,    0.00,    0.00,  0.00000,  0.00000,  0.00000,  0.00000,1,1,   0.00,   1,1.0000
    75,    78,'1 ', 1.42000E-3, 2.25800E-2,   1.88000,    0.00,    0.00,    0.00,  0.00000,  0.00000,  0.00000,  0.00000,1,1,   0.00,   1,1.0000
    76,    78,'1 ', 1.20000E-3, 2.31600E-2,   1.71520,    0.00,    0.00,    0.00,  0.00000,  0.00000,  0.00000,  0.00000,1,2,   0.00,   1,1.0000
    76,    78,'2 ', 3.00000E-4, 2.00000E-2,   3.60000,    0.00,    0.00,    0.00,  0.00000,  0.00000,  0.00000,  0.00000,1,2,   0.00,   1,1.0000
    76,    82,'1 ', 6.30000E-4, 1.41200E-2,   1.09756,    0.00,    0.00, 3450.00,  0.00000,  0.00000,  0.00000,  0.00000,1,2,   0.00,   1,1.0000
    76,    82,'2 ', 1.09000E-3, 2.40800E-2,   1.55542,    0.00,    0.00, 3020.00,  0.00000,  0.00000,  0.00000,  0.00000,1,2,   0.00,   1,1.0000
    76,    82,'3 ', 1.08000E-3, 2.40900E-2,   1.55348,    0.00,    0.00, 3020.00,  0.00000,  0.00000,  0.00000,  0.00000,1,2,   0.00,   1,1.0000
    78,    80,'1 ', 2.00000E-4, 8.20000E-3,   1.30000,    0.00,    0.00,    0.00,  0.00000,  0.00000,  0.00000,  0.00000,1,2,   0.00,   1,1.0000
    78,    80,'2 ', 2.00000E-4, 8.20000E-3,   1.30000,    0.00,    0.00,    0.00,  0.00000,  0.00000,  0.00000,  0.00000,1,2,   0.00,   1,1.0000
    81,    99,'1 ', 2.64000E-3, 5.35600E-2,   5.29066,    0.00,    0.00, 3600.00,  0.00000,  0.00000,  0.00000,  0.00000,1,1,   0.00,   1,1.0000
    81,   180,'1 ',-0.00000E+0,-2.66700E-2,   0.00000,    0.00,    0.00, 1732.00,  0.00000,  0.00000,  0.00000,  0.00000,1,1,   0.00,   1,1.0000
    82,    87,'1 ', 4.10000E-4, 7.37000E-3,   0.72694,    0.00,    0.00, 3450.00,  0.00000,  0.00000,  0.00000,  0.00000,1,1,   0.00,   1,1.0000
    82,    91,'1 ', 6.60000E-4, 1.26600E-2,   0.95976,    0.00,    0.00, 3020.00,  0.00000,  0.00000,  0.00000,  0.00000,1,1,   0.00,   1,1.0000
    82,    95,'1 ', 6.60000E-4, 1.26600E-2,   0.95976,    0.00,    0.00, 3020.00,  0.00000,  0.00000,  0.00000,  0.00000,1,1,   0.00,   1,1.0000
    83,    89,'1 ', 7.20000E-4, 1.38200E-2,   1.27572,    0.00,    0.00, 3600.00,  0.00000,  0.00000,  0.00000,  0.00000,1,1,   0.00,   1,1.0000
    83,    94,'1 ', 7.80000E-4, 1.50200E-2,   1.13810,    0.00,    0.00, 3020.00,  0.00000,  0.00000,  0.00000,  0.00000,1,2,   0.00,   1,1.0000
    83,    98,'1 ', 7.40000E-4, 1.41300E-2,   1.06634,    0.00,    0.00, 3020.00,  0.00000,  0.00000,  0.00000,  0.00000,1,2,   0.00,   1,1.0000
    83,   168,'1 ',-0.00000E+0,-7.20000E-3,   0.00000,    0.00,    0.00, 1800.00,  0.00000,  0.00000,  0.00000,  0.00000,1,1,   0.00,   1,1.0000
    83,   170,'1 ',-0.00000E+0,-8.64000E-3,   0.00000,    0.00,    0.00, 1800.00,  0.00000,  0.00000,  0.00000,  0.00000,1,1,   0.00,   1,1.0000
    83,   172,'1 ',-0.00000E+0,-1.00000E-2,   0.00000,    0.00,    0.00,    0.00,  0.00000,  0.00000,  0.00000,  0.00000,1,1,   0.00,   1,1.0000
    84,    99,'1 ',-0.00000E+0,-2.66700E-2,   0.00000,    0.00,    0.00, 1732.00,  0.00000,  0.00000,  0.00000,  0.00000,1,2,   0.00,   1,1.0000
    85,   156,'1 ', 6.20000E-3, 6.73000E-2,   1.11560,    0.00,    0.00,    0.00,  0.00000,  0.00000,  0.00000,  0.00000,1,2,   0.00,   1,1.0000
    86,    88,'1 ', 6.00000E-4, 1.03600E-2,   1.01456,    0.00,    0.00, 3450.00,  0.00000,  0.00000,  0.00000,  0.00000,1,2,   0.00,   1,1.0000
    86,    90,'1 ', 1.20000E-4, 2.38000E-3,   0.21926,    0.00,    0.00, 3600.00,  0.00000,  0.00000,  0.00000,  0.00000,1,2,   0.00,   1,1.0000
    86,   180,'1 ', 1.22000E-3, 2.37300E-2,   2.20710,    0.00,    0.00, 3600.00,  0.00000,  0.00000,  0.00000,  0.00000,1,2,   0.00,   1,1.0000
    87,    88,'1 ',-0.00000E+0,-1.26300E-2,   0.00000,    0.00,    0.00, 2000.00,  0.00000,  0.00000,  0.00000,  0.00000,1,1,   0.00,   1,1.0000
    89,    90,'1 ',-0.00000E+0,-8.58000E-3,   0.00000,    0.00,    0.00, 2000.00,  0.00000,  0.00000,  0.00000,  0.00000,1,1,   0.00,   1,1.0000
    91,    92,'1 ',-0.00000E+0,-1.26300E-2,   0.00000,    0.00,    0.00, 2400.00,  0.00000,  0.00000,  0.00000,  0.00000,1,1,   0.00,   1,1.0000
    92,    93,'1 ', 7.40000E-4, 1.42800E-2,   1.08220,    0.00,    0.00, 3020.00,  0.00000,  0.00000,  0.00000,  0.00000,1,1,   0.00,   1,1.0000
    93,    94,'1 ',-0.00000E+0,-1.26300E-2,   0.00000,    0.00,    0.00, 2400.00,  0.00000,  0.00000,  0.00000,  0.00000,1,1,   0.00,   1,1.0000
    95,    96,'1 ',-0.00000E+0,-1.26300E-2,   0.00000,    0.00,    0.00, 2000.00,  0.00000,  0.00000,  0.00000,  0.00000,1,1,   0.00,   1,1.0000
    96,    97,'1 ', 7.40000E-4, 1.42800E-2,   1.08220,    0.00,    0.00, 3020.00,  0.00000,  0.00000,  0.00000,  0.00000,1,1,   0.00,   1,1.0000
    97,    98,'1 ',-0.00000E+0,-1.26300E-2,   0.00000,    0.00,    0.00, 2000.00,  0.00000,  0.00000,  0.00000,  0.00000,1,1,   0.00,   1,1.0000
   100,   101,'1 ', 2.48200E-2, 1.69380E-1,   0.20232,    0.00,    0.00,  838.00,  0.00000,  0.00000,  0.00000,  0.00000,1,2,   0.00,   1,1.0000
   100,   117,'1 ', 1.48000E-2, 1.01010E-1,   0.12066,    0.00,    0.00,  838.00,  0.00000,  0.00000,  0.00000,  0.00000,1,1,   0.00,   1,1.0000
   101,   105,'1 ', 1.38200E-2, 9.26800E-2,   0.11060,    0.00,    0.00,  747.00,  0.00000,  0.00000,  0.00000,  0.00000,1,1,   0.00,   1,1.0000
   101,   106,'1 ', 1.66800E-2, 1.13810E-1,   0.13608,    0.00,    0.00,  838.00,  0.00000,  0.00000,  0.00000,  0.00000,1,1,   0.00,   1,1.0000
   101,   113,'1 ', 1.11300E-2, 6.67800E-2,   0.07286,    0.00,    0.00,  752.00,  0.00000,  0.00000,  0.00000,  0.00000,1,1,   0.00,   1,1.0000
   101,   113,'2 ', 1.05000E-2, 6.54000E-2,   0.06860,    0.00,    0.00,  602.00,  0.00000,  0.00000,  0.00000,  0.00000,1,1,   0.00,   1,1.0000
   101,   113,'3 ', 1.10500E-2, 6.64200E-2,   0.07160,    0.00,    0.00,  752.00,  0.00000,  0.00000,  0.00000,  0.00000,1,1,   0.00,   1,1.0000
   101,   117,'1 ', 3.90300E-2, 2.74030E-1,   0.31072,    0.00,    0.00,  747.00,  0.00000,  0.00000,  0.00000,  0.00000,1,1,   0.00,   1,1.0000
   102,   104,'1 ', 7.90000E-4, 1.93700E-2,   1.32850,    0.00,    0.00,    0.00,  0.00000,  0.00000,  0.00000,  0.00000,1,2,   0.00,   1,1.0000
   102,   108,'1 ', 8.70000E-4, 2.08700E-2,   1.45710,    0.00,    0.00,    0.00,  0.00000,  0.00000,  0.00000,  0.00000,1,1,   0.00,   1,1.0000
   102,   108,'2 ', 8.70000E-4, 2.08700E-2,   1.45710,    0.00,    0.00,    0.00,  0.00000,  0.00000,  0.00000,  0.00000,1,1,   0.00,   1,1.0000
   104,   107,'1 ', 8.30000E-4, 1.98500E-2,   0.00000,    0.00,    0.00, 2450.00,  0.00000,  0.00000,  0.00000,  0.00000,1,2,   0.00,   1,1.0000
   104,   134,'1 ', 9.30000E-4, 3.64400E-2,   1.38950,    0.00,    0.00, 2450.00,  0.00000,  0.00000,  0.00000,  0.00000,1,2,   0.00,   1,1.0000
   104,   135,'1 ', 7.20000E-4, 1.60000E-2,   1.08790,    0.00,    0.00, 2450.00,  0.00000,  0.00000,  0.00000,  0.00000,1,1,   0.00,   1,1.0000
   105,   117,'1 ', 3.05800E-2, 2.04600E-1,   0.24472,    0.00,    0.00,  747.00,  0.00000,  0.00000,  0.00000,  0.00000,1,1,   0.00,   1,1.0000
   106,   117,'1 ', 2.23500E-2, 1.61060E-1,   0.18342,    0.00,    0.00,  838.00,  0.00000,  0.00000,  0.00000,  0.00000,1,1,   0.00,   1,1.0000
   107,   108,'1 ', 1.53000E-3, 1.47000E-2,   0.00000,    0.00,    0.00, 1560.00,  0.00000,  0.00000,  0.00000,  0.00000,1,1,   0.00,   1,1.0000
   107,   110,'1 ', 5.30000E-4, 1.29700E-2,   0.00000,    0.00,    0.00, 2450.00,  0.00000,  0.00000,  0.00000,  0.00000,1,2,   0.00,   1,1.0000
   108,   133,'1 ', 2.00000E-5,-1.33100E-2,   0.00000,    0.00,    0.00, 1800.00,  0.00000,  0.00000,  0.00000,  0.00000,1,2,   0.00,   1,1.0000
   108,   135,'1 ', 2.00000E-5,-9.98000E-3,   0.00000,    0.00,    0.00, 2450.00,  0.00000,  0.00000,  0.00000,  0.00000,1,2,   0.00,   1,1.0000
   108,   174,'1 ',-0.00000E+0,-9.35000E-3,   0.00000,    0.00,    0.00, 2134.00,  0.00000,  0.00000,  0.00000,  0.00000,1,1,   0.00,   1,1.0000
   108,   176,'1 ',-0.00000E+0,-9.44000E-3,   0.00000,    0.00,    0.00, 2134.00,  0.00000,  0.00000,  0.00000,  0.00000,1,1,   0.00,   1,1.0000
   108,   178,'1 ',-0.00000E+0,-9.35000E-3,   0.00000,    0.00,    0.00, 2134.00,  0.00000,  0.00000,  0.00000,  0.00000,1,1,   0.00,   1,1.0000
   111,   120,'1 ',-0.00000E+0,-1.00000E-2,   0.00000,    0.00,    0.00, 2667.00,  0.00000,  0.00000,  0.00000,  0.00000,1,1,   0.00,   1,1.0000
   111,   173,'1 ',-0.00000E+0,-1.00000E-2,   0.00000,    0.00,    0.00,    0.00,  0.00000,  0.00000,  0.00000,  0.00000,1,2,   0.00,   1,1.0000
   114,   124,'1 ', 2.00000E-5,-9.98000E-3,   0.00000,    0.00,    0.00, 1800.00,  0.00000,  0.00000,  0.00000,  0.00000,1,1,   0.00,   1,1.0000
   114,   126,'1 ', 2.00000E-5,-9.98000E-3,   0.00000,    0.00,    0.00, 1800.00,  0.00000,  0.00000,  0.00000,  0.00000,1,1,   0.00,   1,1.0000
   114,   169,'1 ',-0.00000E+0,-7.20000E-3,   0.00000,    0.00,    0.00, 1800.00,  0.00000,  0.00000,  0.00000,  0.00000,1,2,   0.00,   1,1.0000
   114,   171,'1 ',-0.00000E+0,-7.20000E-3,   0.00000,    0.00,    0.00, 1800.00,  0.00000,  0.00000,  0.00000,  0.00000,1,2,   0.00,   1,1.0000
   115,   125,'1 ', 1.00000E-5,-6.66000E-3,   0.00000,    0.00,    0.00, 1800.00,  0.00000,  0.00000,  0.00000,  0.00000,1,2,   0.00,   1,1.0000
   115,   127,'1 ', 1.00000E-5,-6.66000E-3,   0.00000,    0.00,    0.00, 1800.00,  0.00000,  0.00000,  0.00000,  0.00000,1,2,   0.00,   1,1.0000
   115,   128,'1 ', 1.00000E-5,-1.12000E-2,   0.00000,    0.00,    0.00, 2667.00,  0.00000,  0.00000,  0.00000,  0.00000,1,1,   0.00,   1,1.0000
   115,   130,'1 ', 1.00000E-5,-7.20000E-3,   0.00000,    0.00,    0.00, 2667.00,  0.00000,  0.00000,  0.00000,  0.00000,1,1,   0.00,   1,1.0000
   119,   123,'1 ',-0.00000E+0,-1.00000E-2,   0.00000,    0.00,    0.00, 2667.00,  0.00000,  0.00000,  0.00000,  0.00000,1,2,   0.00,   1,1.0000
   119,   129,'1 ', 1.00000E-5,-1.12000E-2,   0.00000,    0.00,    0.00, 2667.00,  0.00000,  0.00000,  0.00000,  0.00000,1,2,   0.00,   1,1.0000
   119,   131,'1 ', 1.00000E-5,-3.60000E-3,   0.00000,    0.00,    0.00, 2667.00,  0.00000,  0.00000,  0.00000,  0.00000,1,2,   0.00,   1,1.0000
   119,   132,'1 ', 1.00000E-5,-7.55000E-3,   0.00000,    0.00,    0.00,    0.00,  0.00000,  0.00000,  0.00000,  0.00000,1,1,   0.00,   1,1.0000
   119,   134,'1 ', 1.00000E-5,-1.09800E-2,   0.00000,    0.00,    0.00, 2450.00,  0.00000,  0.00000,  0.00000,  0.00000,1,1,   0.00,   1,1.0000
   120,   121,'1 ', 7.60000E-4, 1.95200E-2,   1.82450,    0.00,    0.00, 2894.00,  0.00000,  0.00000,  0.00000,  0.00000,1,1,   0.00,   1,1.0000
   121,   122,'1 ',-0.00000E+0,-1.00000E-2,   0.00000,    0.00,    0.00, 2667.00,  0.00000,  0.00000,  0.00000,  0.00000,1,1,   0.00,   1,1.0000
   122,   123,'1 ', 8.20000E-4, 2.11900E-2,   1.98420,    0.00,    0.00, 2894.00,  0.00000,  0.00000,  0.00000,  0.00000,1,1,   0.00,   1,1.0000
   124,   125,'1 ', 1.40000E-3, 2.33800E-2,   1.47500,    0.00,    0.00, 2396.00,  0.00000,  0.00000,  0.00000,  0.00000,1,1,   0.00,   1,1.0000
   126,   127,'1 ', 1.40000E-3, 2.33800E-2,   1.47500,    0.00,    0.00, 2396.00,  0.00000,  0.00000,  0.00000,  0.00000,1,1,   0.00,   1,1.0000
   128,   129,'1 ', 1.54000E-3, 3.40900E-2,   2.31140,    0.00,    0.00, 2450.00,  0.00000,  0.00000,  0.00000,  0.00000,1,1,   0.00,   1,1.0000
   130,   131,'1 ', 9.50000E-4, 2.10200E-2,   1.42520,    0.00,    0.00, 2450.00,  0.00000,  0.00000,  0.00000,  0.00000,1,1,   0.00,   1,1.0000
   132,   133,'1 ', 1.65000E-3, 5.71900E-2,   2.47740,    0.00,    0.00, 2450.00,  0.00000,  0.00000,  0.00000,  0.00000,1,1,   0.00,   1,1.0000
   136,   152,'1 ', 4.20000E-4, 9.05000E-3,   0.66794,    0.00,    0.00, 3600.00,  0.00000,  0.00000,  0.00000,  0.00000,1,1,   0.00,   1,1.0000
   137,   143,'1 ', 1.90000E-3, 2.58000E-2,   0.09840,    0.00,    0.00, 2320.00,  0.00000,  0.00000,  0.00000,  0.00000,1,1,   0.00,   1,1.0000
   137,   150,'1 ', 8.45000E-3, 7.03400E-2,   0.15954,    0.00,    0.00, 1160.00,  0.00000,  0.00000,  0.00000,  0.00000,1,1,   0.00,   1,1.0000
   139,   142,'1 ', 1.93000E-3, 2.77900E-2,   4.67120,    0.00,    0.00, 3600.00,  0.00000,  0.00000,  0.00000,  0.00000,1,1,   0.00,   1,1.0000
   139,   147,'1 ', 5.60000E-4, 1.41500E-2,   1.04290,    0.00,    0.00, 3600.00,  0.00000,  0.00000,  0.00000,  0.00000,1,2,   0.00,   1,1.0000
   141,   143,'1 ', 1.10000E-3, 1.27000E-2,   0.04800,    0.00,    0.00, 2320.00,  0.00000,  0.00000,  0.00000,  0.00000,1,1,   0.00,   1,1.0000
   142,   145,'1 ', 2.80000E-4, 7.53000E-3,   0.51736,    0.00,    0.00, 3600.00,  0.00000,  0.00000,  0.00000,  0.00000,1,1,   0.00,   1,1.0000
   142,   145,'2 ', 3.50000E-4, 7.50000E-3,   0.55360,    0.00,    0.00, 3600.00,  0.00000,  0.00000,  0.00000,  0.00000,1,1,   0.00,   1,1.0000
   142,   147,'1 ', 1.90000E-3, 3.10000E-2,   4.14020,    0.00,    0.00, 3600.00,  0.00000,  0.00000,  0.00000,  0.00000,1,1,   0.00,   1,1.0000
   142,   151,'1 ', 6.00000E-4, 1.28000E-2,   0.94620,    0.00,    0.00, 3600.00,  0.00000,  0.00000,  0.00000,  0.00000,1,1,   0.00,   1,1.0000
   142,   153,'1 ', 4.40000E-4, 1.12500E-2,   0.82920,    0.00,    0.00, 3600.00,  0.00000,  0.00000,  0.00000,  0.00000,1,1,   0.00,   1,1.0000
...